gem5 Simulator System.  http://gem5.org
gem5 is copyrighted software; use the --copyright option for details.

gem5 compiled Feb 23 2018 15:58:39
gem5 started Feb 24 2018 18:27:33
gem5 executing on utsasrg2, pid 30563
command line: ../build/X86/gem5.opt ../configs/example/se.py --cmd=../../test2/spectre --cpu-type=DerivO3CPU --mem-type=DDR4_2400_16x4 --cpu-clock=2GHz --mem-size=8GB --caches --l1d_size=32kB --l1d_assoc=4 --l1i_size=32kB --l1i_assoc=4 --l2cache

info: Standard input is not a terminal, disabling listeners.
Global frequency set at 1000000000000 ticks per second
warn: DRAM device capacity (32768 Mbytes) does not match the address range assigned (8192 Mbytes)
warn: Sockets disabled, not accepting gdb connections
**** REAL SIMULATION ****
info: Entering event queue @ 0.  Starting simulation...
warn: x86 cpuid family 0x0000: unimplemented function 7
warn: readlink() called on '/proc/self/exe' may yield unexpected results in various settings.
      Returning '/home/tianyiliu/myprojects/DazeSpectre/test2/spectre'
info: Increasing stack size by one page.
warn: ignoring syscall access(...)
Reading 40 bytes:
Reading at malicious_x = 0xffffffffffdd7988... Success: 0x54=’T’ score=2 
Reading at malicious_x = 0xffffffffffdd7989... Success: 0x68=’h’ score=2 
Reading at malicious_x = 0xffffffffffdd798a... Success: 0x65=’e’ score=2 
Reading at malicious_x = 0xffffffffffdd798b... Success: 0x20=’ ’ score=2 
Reading at malicious_x = 0xffffffffffdd798c... Success: 0x4D=’M’ score=2 
Reading at malicious_x = 0xffffffffffdd798d... Success: 0x61=’a’ score=2 
Reading at malicious_x = 0xffffffffffdd798e... Success: 0x67=’g’ score=2 
Reading at malicious_x = 0xffffffffffdd798f... Success: 0x69=’i’ score=2 
Reading at malicious_x = 0xffffffffffdd7990... Success: 0x63=’c’ score=2 
Reading at malicious_x = 0xffffffffffdd7991... Success: 0x20=’ ’ score=2 
Reading at malicious_x = 0xffffffffffdd7992... Success: 0x57=’W’ score=2 
Reading at malicious_x = 0xffffffffffdd7993... Success: 0x6F=’o’ score=2 
Reading at malicious_x = 0xffffffffffdd7994... Success: 0x72=’r’ score=2 
Reading at malicious_x = 0xffffffffffdd7995... Success: 0x64=’d’ score=2 
Reading at malicious_x = 0xffffffffffdd7996... Success: 0x73=’s’ score=2 
Reading at malicious_x = 0xffffffffffdd7997... Success: 0x20=’ ’ score=2 
Reading at malicious_x = 0xffffffffffdd7998... Success: 0x61=’a’ score=2 
Reading at malicious_x = 0xffffffffffdd7999... Success: 0x72=’r’ score=2 
Reading at malicious_x = 0xffffffffffdd799a... Success: 0x65=’e’ score=2 
Reading at malicious_x = 0xffffffffffdd799b... Success: 0x20=’ ’ score=2 
Reading at malicious_x = 0xffffffffffdd799c... Success: 0x53=’S’ score=2 
Reading at malicious_x = 0xffffffffffdd799d... Success: 0x71=’q’ score=2 
Reading at malicious_x = 0xffffffffffdd799e... Success: 0x75=’u’ score=2 
Reading at malicious_x = 0xffffffffffdd799f... Success: 0x65=’e’ score=2 
Reading at malicious_x = 0xffffffffffdd79a0... Success: 0x61=’a’ score=2 
Reading at malicious_x = 0xffffffffffdd79a1... Success: 0x6D=’m’ score=2 
Reading at malicious_x = 0xffffffffffdd79a2... Success: 0x69=’i’ score=2 
Reading at malicious_x = 0xffffffffffdd79a3... Success: 0x73=’s’ score=2 
Reading at malicious_x = 0xffffffffffdd79a4... Success: 0x68=’h’ score=2 
Reading at malicious_x = 0xffffffffffdd79a5... Success: 0x20=’ ’ score=2 
Reading at malicious_x = 0xffffffffffdd79a6... Success: 0x4F=’O’ score=2 
Reading at malicious_x = 0xffffffffffdd79a7... Success: 0x73=’s’ score=2 
Reading at malicious_x = 0xffffffffffdd79a8... Success: 0x73=’s’ score=2 
Reading at malicious_x = 0xffffffffffdd79a9... Success: 0x69=’i’ score=2 
Reading at malicious_x = 0xffffffffffdd79aa... Success: 0x66=’f’ score=2 
Reading at malicious_x = 0xffffffffffdd79ab... Success: 0x72=’r’ score=2 
Reading at malicious_x = 0xffffffffffdd79ac... Success: 0x61=’a’ score=2 
Reading at malicious_x = 0xffffffffffdd79ad... Success: 0x67=’g’ score=2 
Reading at malicious_x = 0xffffffffffdd79ae... Success: 0x65=’e’ score=2 
Reading at malicious_x = 0xffffffffffdd79af... Success: 0x2E=’.’ score=2 
Exiting @ tick 425833841500 because exiting with last active thread context
